Circuit: * C:\Users\HP\Desktop\Maceng\2ND YEAR\Winter24\E.ENG 2EI4\My projects\Project 4\Draft1.asc

Direct Newton iteration for .op point succeeded.

Date: Thu Apr 11 16:08:12 2024
Total elapsed time: 0.238 seconds.

tnom = 27
temp = 27
method = modified trap
totiter = 5736
traniter = 5691
tranpoints = 1599
accept = 1462
rejected = 137
matrix size = 12
fillins = 2
solver = Normal
Avg thread counts: 1.5/2.7/2.8/1.5
Matrix Compiler1: 1002 bytes object code size  1.0/0.7/[0.5]
Matrix Compiler2: 1.24 KB object code size  0.6/1.4/[0.5]

